Examples/InverterModels/PVSystem2/InvControl2/volt-var/SnapShot_voltvar_Standard-2_Power_elem_kVA.txt

CIRCUIT ELEMENT POWER FLOW

(Power Flow into element from indicated Bus)

Power Delivery Elements

  Bus Phase     kW     +j   kvar         kVA         PF

ELEMENT = "Vsource.SOURCE"
A        1       333.3 +j   -136.3      360.1      -0.9257
A        2       333.3 +j   -136.3      360.1      -0.9257
A        3       333.3 +j   -136.3      360.1      -0.9257
   TERMINAL TOTAL  1000.0 +j   -408.8     1080.3      -0.9257
A        0         0.0 +j      0.0        0.0       1.0000
A        0         0.0 +j      0.0        0.0       1.0000
A        0         0.0 +j      0.0        0.0       1.0000
   TERMINAL TOTAL     0.0 +j      0.0        0.0       1.0000

= = = = = = = = = = = = = = = = = = =  = = = = = = = = = = =  = =

Power Conversion Elements

  Bus Phase     kW   +j  kvar         kVA         PF

ELEMENT = "PVSystem.PV"
A        1    -333.3 +j  136.3      360.1      -0.9257
A        2    -333.3 +j  136.3      360.1      -0.9257
A        3    -333.3 +j  136.3      360.1      -0.9257
A        0       0.0 +j    0.0        0.0       1.0000
  TERMINAL TOTAL  -1000.0 +j    408.8     1080.3      -0.9257


Total Circuit Losses =    0.0 +j    0.0
